[General]
repeat = 5
seed-set = ${repetition}
output-scalar-file-append = true
output-scalar-file = /home/Manet/logs/hierarchical/LOG/${configname}_${repetition}.sca
network = p2psipmanet.simulations.hierarchical
debug-on-errors = true
record-eventlog = false
sim-time-limit = 15min #note: see oversim-specific parameters "transition-time" / "measurement time"
description = "Chord over MANET - no mobility"


**.constraintAreaMinX = 0m
**.constraintAreaMinY = 0m
**.constraintAreaMinZ = 0m
**.constraintAreaMaxX = 4000m
**.constraintAreaMaxY = 4000m
**.constraintAreaMaxZ = 0m

# mobility
**.mobilityType = "StationaryMobility"
**.mobility.initFromDisplayString = true

#PING CONFIGS
**.numPingApps = 1
**.pingTestApp[*].packetSize = 64B
**.pingTestApp[*].printPing = true
**.pingTestApp[*].continuous = true	
**.pingTestApp[*].sendInterval = truncnormal(0.3s, 0.01s)
**.gw[*].pingTestApp[*].startTime = 0s
**.gw[*].pingTestApp[*].stopTime = 0s
**.host[0].pingTestApp[*].startTime = 210s
**.host[1].pingTestApp[*].startTime = 210.01s
**.host[2].pingTestApp[*].startTime = 210.02s
**.host[3].pingTestApp[*].startTime = 210.03s
**.host[4].pingTestApp[*].startTime = 210.04s
**.host[5].pingTestApp[*].startTime = 210.05s
**.host[6].pingTestApp[*].startTime = 210.06s
**.host[7].pingTestApp[*].startTime = 210.07s
**.host[8].pingTestApp[*].startTime = 210.08s
**.host[9].pingTestApp[*].startTime = 210.09s
**.host[10].pingTestApp[*].startTime = 210.10s
**.host[11].pingTestApp[*].startTime = 210.11s
**.host[12].pingTestApp[*].startTime = 210.12s
**.host[13].pingTestApp[*].startTime = 210.13s
**.host[14].pingTestApp[*].startTime = 210.14s
**.host[15].pingTestApp[*].startTime = 210.15s
**.host[16].pingTestApp[*].startTime = 210.16s
**.host[17].pingTestApp[*].startTime = 210.17s
**.host[18].pingTestApp[*].startTime = 210.18s
**.host[19].pingTestApp[*].startTime = 210.19s
**.host[20].pingTestApp[*].startTime = 210.20s
**.host[21].pingTestApp[*].startTime = 210.21s
**.host[22].pingTestApp[*].startTime = 210.22s
**.host[23].pingTestApp[*].startTime = 210.23s
**.host[24].pingTestApp[*].startTime = 210.24s
**.host[25].pingTestApp[*].startTime = 210.25s
**.host[26].pingTestApp[*].startTime = 210.26s
**.host[27].pingTestApp[*].startTime = 210.27s
**.host[28].pingTestApp[*].startTime = 210.28s
**.host[29].pingTestApp[*].startTime = 210.29s

**.host[0].pingTestApp[*].destAddresses = "host[20]"
**.host[1].pingTestApp[*].destAddresses = "host[21]"
**.host[2].pingTestApp[*].destAddresses = "host[10]"
**.host[3].pingTestApp[*].destAddresses = "host[11]"
**.host[4].pingTestApp[*].destAddresses = "host[12]"
**.host[5].pingTestApp[*].destAddresses = "host[25]"
**.host[6].pingTestApp[*].destAddresses = "host[26]"
**.host[7].pingTestApp[*].destAddresses = "host[15]"
**.host[8].pingTestApp[*].destAddresses = "host[16]"
**.host[9].pingTestApp[*].destAddresses = "host[17]"

**.host[10].pingTestApp[*].destAddresses = "host[0]"
**.host[11].pingTestApp[*].destAddresses = "host[1]"
**.host[12].pingTestApp[*].destAddresses = "host[22]"
**.host[13].pingTestApp[*].destAddresses = "host[23]"
**.host[14].pingTestApp[*].destAddresses = "host[24]"
**.host[15].pingTestApp[*].destAddresses = "host[5]"
**.host[16].pingTestApp[*].destAddresses = "host[6]"
**.host[17].pingTestApp[*].destAddresses = "host[27]"
**.host[18].pingTestApp[*].destAddresses = "host[28]"
**.host[19].pingTestApp[*].destAddresses = "host[29]"

**.host[20].pingTestApp[*].destAddresses = "host[13]"
**.host[21].pingTestApp[*].destAddresses = "host[14]"
**.host[22].pingTestApp[*].destAddresses = "host[2]"
**.host[23].pingTestApp[*].destAddresses = "host[3]"
**.host[24].pingTestApp[*].destAddresses = "host[4]"
**.host[25].pingTestApp[*].destAddresses = "host[18]"
**.host[26].pingTestApp[*].destAddresses = "host[19]"
**.host[27].pingTestApp[*].destAddresses = "host[7]"
**.host[28].pingTestApp[*].destAddresses = "host[8]"
**.host[29].pingTestApp[*].destAddresses = "host[9]"


#*******************************************************************************************
#overlay
#*******************************************************************************************
**.overlayType = "p2psipmanet.ManetChordModules"
**.overlayId = 0
**.neighborCache.debugOutput = true
**.overlay.chord.drawOverlayTopology = true
**.overlay.chord.routingType = "iterative"
**.overlay*.*.joinOnApplicationRequest = false
**.gw*.**.overlayInterface = "wlan1"

#*******************************************************************************************
#tiers
#*******************************************************************************************
#**.tier1Type = "oversim.applications.dht.DHTModules"
**.tier1Type = "oversim.applications.dht.DHTModules"
**.tier2Type = "p2psipmanet.DHT4Rouring.DHT4RoutingModules"
**.tier3Type = "oversim.common.TierDummy"
**.numTiers = 2
**.dht.numReplica = 4

#********************************************************************************************
# DHT4Routing settings
#********************************************************************************************
**.tier2.debugOutput = true
**.tier3.debugOutput = true
**.tier2.dht4routing.testTtl = 900
**.tier2.dht4routing.testInterval = 60s
**.tier2.dht4routing.DHT4RoutingtransitionTime = 100s
**.tier2.dht4routing.DHT4RoutingmeasurementTime = 800s
**.tier2.dht4routing.p2pnsTraffic = false
**.tier1.dht.resolveToSelfAttack = false

#*********************************************************************************************
#GLOBAL OBSERVER CONFIGS
#*********************************************************************************************
**.globalObserver.globalFunctions[0].functionType = "p2psipmanet.DHT4Rouring.GlobalDhtTestMap"
**.globalObserver.numGlobalFunctions = 1
**.globalObserver.globalNodeList.maliciousNodeChange = false
**.globalObserver.globalNodeList.maliciousNodeChangeStopValue = 0
**.globalObserver.globalNodeList.maliciousNodeProbability = 0
**.terminalTypes= "p2psipmanet.host, inet.nodes.inet.AdhocHost"
**.churnGeneratorTypes = "p2psipmanet.ZeroChurn" # a list of churn generators to be used
**.transitionTime = 100s
**.measurementTime = 800s


#*********************************************************************************************
# Attack / GlobalNodeList settings
#*********************************************************************************************
**.overlay*.*.dropFindNodeAttack = false
**.overlay*.*.isSiblingAttack = false
**.overlay*.*.invalidNodesAttack = false
**.overlay*.*.dropRouteMessageAttack = false
**.tier1*.dht.invalidDataAttack = false
**.tier1*.dht.maintenanceAttack = false
*.globalObserver.globalNodeList.maliciousNodeChangeStartTime = 0s
*.globalObserver.globalNodeList.maliciousNodeChangeRate = 0
*.globalObserver.globalNodeList.maliciousNodeChangeInterval = 0s
*.globalObserver.globalNodeList.maliciousNodeChangeStartValue = 0

#**********************************************************************************************
# configure routing and interface info
#**********************************************************************************************
**.gw*.manetrouting.announcedNetworks = "0.0.0.0/0.0.0.0"
**.configurator.dumpAddresses = true
**.configurator.dumpTopology = true
**.configurator.dumpRoutes = true
**.configurator.addStaticRoutes = false
**.configurator.addDefaultRoutes = false
**.configurator.addSubnetRoutes = false
**.routingProtocol = "OLSR"
**.backboneRoutingProtocol = "OLSR" 
**.manetrouting.excludedInterfaces = "wlan1"
**.manetrouting.interfaces = "wlan0"
**.backbonemanetrouting.excludedInterfaces = "wlan0"
**.backbonemanetrouting.interfaces = "wlan1"

#**********************************************************************************************
#RADIO CONFIGS
#**********************************************************************************************
**.wlan[*].bitrate = 11Mbps

#**********************************************************************************************
#Others
#**********************************************************************************************

**.vector-recording = false
**.scalar-recording = true
**.printOLSRmessages = true

##################################
#OLSR CONFIG
##################################
**.isStatic = true
**.stabilization = 200s




##############################################################################################
[Config OneCluster]
##############################################################################################

*.host[*].wlan[*].radio.maxDistance = 1000m

**.hosts = 40
**.gw = 0


#NODE POSITIONS
**.host[*].*.constraintAreaMinX = 500m
**.host[*].*.constraintAreaMinY = 500m
**.host[*].*.constraintAreaMaxX = 3500m
**.host[*].*.constraintAreaMaxY = 3500m

# configure IPv4 addresses
*.configurator.config = xml( \
"<config>\
		<interface hosts='host[*]' names='wlan0' address='10.0.0.x' netmask='255.255.255.0'/>\
</config>")


# number of radios per host
*.host[*].numRadios = 1
 

# number of channels used
**.channelControl.numChannels = 1

# wlan interface - radio channel assignemnt
**.host[*].wlan[0].radio.channelNumber =0



##############################################################################################
[Config TwoClusters]
##############################################################################################

*.gw[*].wlan[0].radio.maxDistance = 1000m
*.gw[*].wlan[*].radio.maxDistance = 4000m
*.host[*].wlan[*].radio.maxDistance = 1000m

**.hosts = 38
**.gw = 3 #one unresolved issue is that, getting two gateways to form the overlay works sometimes and does not work other times. To be on the safe side, 3 can be used and the metrics for the third gateway may be discarded. 

#active gateway position
**.gw[0].*.constraintAreaMinX = 1000m
**.gw[0].*.constraintAreaMinY = 1000m
**.gw[0].*.constraintAreaMaxX = 1000m
**.gw[0].*.constraintAreaMaxY = 1000m
**.gw[1].*.constraintAreaMinX = 3000m
**.gw[1].*.constraintAreaMinY = 3000m
**.gw[1].*.constraintAreaMaxX = 3000m
**.gw[1].*.constraintAreaMaxY = 3000m
**.gw[2].*.constraintAreaMinX = 3000m
**.gw[2].*.constraintAreaMinY = 1000m
**.gw[2].*.constraintAreaMaxX = 3000m
**.gw[2].*.constraintAreaMaxY = 1000m


#NODE POSITIONS
**.host[1].*.constraintAreaMinX = 500m
**.host[1].*.constraintAreaMinY = 500m
**.host[1].*.constraintAreaMaxX = 2000m
**.host[1].*.constraintAreaMaxY = 2000m
**.host[2].*.constraintAreaMinX = 500m
**.host[2].*.constraintAreaMinY = 500m
**.host[2].*.constraintAreaMaxX = 2000m
**.host[2].*.constraintAreaMaxY = 2000m
**.host[3].*.constraintAreaMinX = 500m
**.host[3].*.constraintAreaMinY = 500m
**.host[3].*.constraintAreaMaxX = 2000m
**.host[3].*.constraintAreaMaxY = 2000m
**.host[1*].*.constraintAreaMinX = 500m
**.host[1*].*.constraintAreaMinY = 500m
**.host[1*].*.constraintAreaMaxX = 2000m
**.host[1*].*.constraintAreaMaxY = 2000m
**.host[2*].*.constraintAreaMinX = 2500m
**.host[2*].*.constraintAreaMinY = 2500m
**.host[2*].*.constraintAreaMaxX = 4000m
**.host[2*].*.constraintAreaMaxY = 4000m
**.host[3*].*.constraintAreaMinX = 2500m
**.host[3*].*.constraintAreaMinY = 2500m
**.host[3*].*.constraintAreaMaxX = 4000m
**.host[3*].*.constraintAreaMaxY = 4000m
**.host[*].*.constraintAreaMinX = 500m
**.host[*].*.constraintAreaMinY = 500m
**.host[*].*.constraintAreaMaxX = 2000m
**.host[*].*.constraintAreaMaxY = 2000m


# configure IPv4 addresses
*.configurator.config = xml( \
"<config>\
		<interface hosts='gw[0] host[1] host[2] host[3] host[1*]' names='wlan0' address='10.0.1.x' netmask='255.255.255.0'/>\
		<interface hosts='gw[1] host[2*] host[3*]' names='wlan0' address='10.0.2.x' netmask='255.255.255.0'/>\
		<interface hosts='gw[0] host[*]' names='wlan0' address='10.0.1.x' netmask='255.255.255.0'/>\
		<interface hosts='gw[0] gw[1] gw[2]' names='wlan1' address='10.0.0.x' netmask='255.255.255.0'/>\
</config>")


# number of radios per host
*.gw[*].numRadios = 2
*.host[*].numRadios = 1
 

# number of channels used
**.channelControl.numChannels = 5

# wlan interface - radio channel assignemnt
**.gw[0].wlan[0].radio.channelNumber = 0
**.gw[1].wlan[0].radio.channelNumber = 1
**.gw[2].wlan[0].radio.channelNumber = 3
**.gw[*].wlan[1].radio.channelNumber = 2
**.host[1].wlan[0].radio.channelNumber = 0
**.host[2].wlan[0].radio.channelNumber = 0
**.host[3].wlan[0].radio.channelNumber = 0
**.host[1*].wlan[0].radio.channelNumber = 0
**.host[2*].wlan[0].radio.channelNumber = 1
**.host[3*].wlan[0].radio.channelNumber = 1
**.host[*].wlan[0].radio.channelNumber =0



##############################################################################################
[Config ThreeClusters]
##############################################################################################

# the three cluster config is just a test bed ... we did not collect any metrics for this one but we have it anyway

*.gw[*].wlan[0].radio.maxDistance = 900m
*.gw[*].wlan[*].radio.maxDistance = 4000m
*.host[*].wlan[*].radio.maxDistance = 900m

**.hosts = 37
**.gw = 3

#active gateway position
**.gw[0].*.constraintAreaMinX = 2000m
**.gw[0].*.constraintAreaMinY = 1000m
**.gw[0].*.constraintAreaMaxX = 2000m
**.gw[0].*.constraintAreaMaxY = 1000m
**.gw[1].*.constraintAreaMinX = 750m
**.gw[1].*.constraintAreaMinY = 3000m
**.gw[1].*.constraintAreaMaxX = 750m
**.gw[1].*.constraintAreaMaxY = 3000m
**.gw[2].*.constraintAreaMinX = 3250m
**.gw[2].*.constraintAreaMinY = 3000m
**.gw[2].*.constraintAreaMaxX = 3250m
**.gw[2].*.constraintAreaMaxY = 3000m

#NODE POSITIONS
**.host[0].*.constraintAreaMinX = 1000m
**.host[0].*.constraintAreaMinY = 0m
**.host[0].*.constraintAreaMaxX = 3000m
**.host[0].*.constraintAreaMaxY = 1600m
**.host[1].*.constraintAreaMinX = 1000m
**.host[1].*.constraintAreaMinY = 0m
**.host[1].*.constraintAreaMaxX = 3000m
**.host[1].*.constraintAreaMaxY = 1600m
**.host[2].*.constraintAreaMinX = 1000m
**.host[2].*.constraintAreaMinY = 0m
**.host[2].*.constraintAreaMaxX = 3000m
**.host[2].*.constraintAreaMaxY = 1600m
**.host[1*].*.constraintAreaMinX = 0m
**.host[1*].*.constraintAreaMinY = 2400m
**.host[1*].*.constraintAreaMaxX = 2000m
**.host[1*].*.constraintAreaMaxY = 4000m
**.host[2*].*.constraintAreaMinX = 2000m
**.host[2*].*.constraintAreaMinY = 2400m
**.host[2*].*.constraintAreaMaxX = 4000m
**.host[2*].*.constraintAreaMaxY = 4000m
**.host[*].*.constraintAreaMinX = 1000m
**.host[*].*.constraintAreaMinY = 0m
**.host[*].*.constraintAreaMaxX = 3000m
**.host[*].*.constraintAreaMaxY = 1600m

# configure IPv4 addresses
*.configurator.config = xml( \
"<config>\
		<interface hosts='gw[0] host[0] host[1] host[2] host[3]' names='wlan0' address='10.0.1.x' netmask='255.255.255.0'/>\
		<interface hosts='gw[1] host[1*]' names='wlan0' address='10.0.2.x' netmask='255.255.255.0'/>\
		<interface hosts='gw[2] host[2*]' names='wlan0' address='10.0.3.x' netmask='255.255.255.0'/>\
		<interface hosts='gw[0] host[*]' names='wlan0' address='10.0.1.x' netmask='255.255.255.0'/>\
		<interface hosts='gw[0] gw[1] gw[2]' names='wlan1' address='10.0.0.x' netmask='255.255.255.0'/>\
</config>")


# number of radios per host
*.gw[*].numRadios = 2
*.host[*].numRadios = 1
 

# number of channels used
**.channelControl.numChannels = 4

# wlan interface - radio channel assignemnt
**.gw[0].wlan[0].radio.channelNumber = 0
**.gw[1].wlan[0].radio.channelNumber = 1
**.gw[2].wlan[0].radio.channelNumber = 2
**.gw[*].wlan[1].radio.channelNumber = 3
**.host[0].wlan[0].radio.channelNumber = 0
**.host[1].wlan[0].radio.channelNumber = 0
**.host[2].wlan[0].radio.channelNumber = 0
**.host[1*].wlan[0].radio.channelNumber = 1
**.host[2*].wlan[0].radio.channelNumber = 2
**.host[*].wlan[0].radio.channelNumber =0



##############################################################################################
[Config FourClusters]
##############################################################################################

*.gw[*].wlan[0].radio.maxDistance = 800m
*.gw[*].wlan[*].radio.maxDistance = 4000m
*.host[*].wlan[*].radio.maxDistance = 800m

#ping configs
**.host[30].pingTestApp[*].startTime = 210.30s
**.host[31].pingTestApp[*].startTime = 210.31s
**.host[32].pingTestApp[*].startTime = 210.32s
**.host[33].pingTestApp[*].startTime = 210.33s
**.host[34].pingTestApp[*].startTime = 210.34s
**.host[35].pingTestApp[*].startTime = 210.35s

#PING CONFIGS

**.host[0].pingTestApp[*].destAddresses = "host[13]"
**.host[1].pingTestApp[*].destAddresses = "host[14]"
**.host[2].pingTestApp[*].destAddresses = "host[15]"
**.host[3].pingTestApp[*].destAddresses = "host[16]"
**.host[4].pingTestApp[*].destAddresses = "host[17]"
**.host[5].pingTestApp[*].destAddresses = "host[0]"
**.host[6].pingTestApp[*].destAddresses = "host[1]"
**.host[7].pingTestApp[*].destAddresses = "host[2]"
**.host[8].pingTestApp[*].destAddresses = ""
**.host[9].pingTestApp[*].destAddresses = ""

**.host[10].pingTestApp[*].destAddresses = "host[35]"
**.host[11].pingTestApp[*].destAddresses = "host[26]"
**.host[12].pingTestApp[*].destAddresses = "host[27]"
**.host[13].pingTestApp[*].destAddresses = "host[28]"
**.host[14].pingTestApp[*].destAddresses = "host[29]"
**.host[15].pingTestApp[*].destAddresses = "host[10]"
**.host[16].pingTestApp[*].destAddresses = "host[11]"
**.host[17].pingTestApp[*].destAddresses = "host[12]"
**.host[18].pingTestApp[*].destAddresses = ""
**.host[19].pingTestApp[*].destAddresses = ""

**.host[20].pingTestApp[*].destAddresses = "host[30]"
**.host[21].pingTestApp[*].destAddresses = "host[31]"
**.host[22].pingTestApp[*].destAddresses = "host[32]"
**.host[23].pingTestApp[*].destAddresses = "host[33]"
**.host[24].pingTestApp[*].destAddresses = "host[34]"
**.host[25].pingTestApp[*].destAddresses = "host[20]"
**.host[26].pingTestApp[*].destAddresses = "host[21]"
**.host[27].pingTestApp[*].destAddresses = "host[22]"
**.host[28].pingTestApp[*].destAddresses = ""
**.host[29].pingTestApp[*].destAddresses = ""

**.host[30].pingTestApp[*].destAddresses = "host[20]"
**.host[31].pingTestApp[*].destAddresses = "host[21]"
**.host[32].pingTestApp[*].destAddresses = "host[22]"
**.host[33].pingTestApp[*].destAddresses = "host[23]"
**.host[34].pingTestApp[*].destAddresses = "host[24]"
**.host[35].pingTestApp[*].destAddresses = "host[25]"


**.hosts = 36
**.gw = 4

#active gateway position
**.gw[0].*.constraintAreaMinX = 1000m
**.gw[0].*.constraintAreaMinY = 1000m
**.gw[0].*.constraintAreaMaxX = 1000m
**.gw[0].*.constraintAreaMaxY = 1000m
**.gw[1].*.constraintAreaMinX = 3000m
**.gw[1].*.constraintAreaMinY = 1000m
**.gw[1].*.constraintAreaMaxX = 3000m
**.gw[1].*.constraintAreaMaxY = 1000m
**.gw[2].*.constraintAreaMinX = 1000m
**.gw[2].*.constraintAreaMinY = 3000m
**.gw[2].*.constraintAreaMaxX = 1000m
**.gw[2].*.constraintAreaMaxY = 3000m
**.gw[3].*.constraintAreaMinX = 3000m
**.gw[3].*.constraintAreaMinY = 3000m
**.gw[3].*.constraintAreaMaxX = 3000m
**.gw[3].*.constraintAreaMaxY = 3000m

#NODE POSITIONS
**.host[1].*.constraintAreaMinX = 500m
**.host[1].*.constraintAreaMinY = 500m
**.host[1].*.constraintAreaMaxX = 1500m
**.host[1].*.constraintAreaMaxY = 1500m
**.host[2].*.constraintAreaMinX = 500m
**.host[2].*.constraintAreaMinY = 500m
**.host[2].*.constraintAreaMaxX = 1500m
**.host[2].*.constraintAreaMaxY = 1500m
**.host[3].*.constraintAreaMinX = 500m
**.host[3].*.constraintAreaMinY = 500m
**.host[3].*.constraintAreaMaxX = 1500m
**.host[3].*.constraintAreaMaxY = 1500m

**.host[1*].*.constraintAreaMinX = 2500m
**.host[1*].*.constraintAreaMinY = 500m
**.host[1*].*.constraintAreaMaxX = 3500m
**.host[1*].*.constraintAreaMaxY = 1500m

**.host[2*].*.constraintAreaMinX = 500m
**.host[2*].*.constraintAreaMinY = 2500m
**.host[2*].*.constraintAreaMaxX = 1500m
**.host[2*].*.constraintAreaMaxY = 3500m

**.host[3*].*.constraintAreaMinX = 2500m
**.host[3*].*.constraintAreaMinY = 2500m
**.host[3*].*.constraintAreaMaxX = 3500m
**.host[3*].*.constraintAreaMaxY = 3500m

**.host[*].*.constraintAreaMinX = 500m
**.host[*].*.constraintAreaMinY = 500m
**.host[*].*.constraintAreaMaxX = 1500m
**.host[*].*.constraintAreaMaxY = 1500m

# configure IPv4 addresses
*.configurator.config = xml( \
"<config>\
		<interface hosts='gw[0] host[1] host[2] host[3]' names='wlan0' address='10.0.1.x' netmask='255.255.255.0'/>\
		<interface hosts='gw[1] host[1*]' names='wlan0' address='10.0.2.x' netmask='255.255.255.0'/>\
		<interface hosts='gw[2] host[2*]' names='wlan0' address='10.0.3.x' netmask='255.255.255.0'/>\
		<interface hosts='gw[3] host[3*]' names='wlan0' address='10.0.4.x' netmask='255.255.255.0'/>\
		<interface hosts='gw[0] host[*]' names='wlan0' address='10.0.1.x' netmask='255.255.255.0'/>\
		<interface hosts='gw[0] gw[1] gw[2] gw[3]' names='wlan1' address='10.0.0.x' netmask='255.255.255.0'/>\
</config>")


# number of radios per host
*.gw[*].numRadios = 2
*.host[*].numRadios = 1
 

# number of channels used
**.channelControl.numChannels = 5

**.gw[0].wlan[0].radio.channelNumber = 0
**.gw[1].wlan[0].radio.channelNumber = 1
**.gw[2].wlan[0].radio.channelNumber = 2
**.gw[3].wlan[0].radio.channelNumber = 3
**.gw[*].wlan[1].radio.channelNumber = 4
**.host[1].wlan[0].radio.channelNumber = 0
**.host[2].wlan[0].radio.channelNumber = 0
**.host[3].wlan[0].radio.channelNumber = 0
**.host[1*].wlan[0].radio.channelNumber = 1
**.host[2*].wlan[0].radio.channelNumber = 2
**.host[3*].wlan[0].radio.channelNumber = 3
**.host[*].wlan[0].radio.channelNumber = 0


##############################################################################################
[Config FiveClusters]
##############################################################################################

*.gw[*].wlan[0].radio.maxDistance = 700m
*.gw[*].wlan[*].radio.maxDistance = 4000m
*.host[*].wlan[*].radio.maxDistance = 700m

#ping configs
**.host[30].pingTestApp[*].startTime = 210.30s
**.host[31].pingTestApp[*].startTime = 210.31s
**.host[32].pingTestApp[*].startTime = 210.32s
**.host[33].pingTestApp[*].startTime = 210.33s
**.host[34].pingTestApp[*].startTime = 210.34s


**.host[0].pingTestApp[*].destAddresses = ""
**.host[1].pingTestApp[*].destAddresses = "host[32]"
**.host[2].pingTestApp[*].destAddresses = "host[19]"
**.host[3].pingTestApp[*].destAddresses = "host[31]"
**.host[4].pingTestApp[*].destAddresses = "host[18]"
**.host[5].pingTestApp[*].destAddresses = "host[26]"
**.host[6].pingTestApp[*].destAddresses = "host[5]"


**.host[10].pingTestApp[*].destAddresses = "host[0]"
**.host[11].pingTestApp[*].destAddresses = "host[1]"
**.host[12].pingTestApp[*].destAddresses = "host[22]"
**.host[13].pingTestApp[*].destAddresses = ""
**.host[14].pingTestApp[*].destAddresses = "host[10]"
**.host[15].pingTestApp[*].destAddresses = "host[12]"
**.host[16].pingTestApp[*].destAddresses = "host[6]"


**.host[20].pingTestApp[*].destAddresses = "host[13]"
**.host[21].pingTestApp[*].destAddresses = "host[25]"
**.host[22].pingTestApp[*].destAddresses = "host[2]"
**.host[23].pingTestApp[*].destAddresses = ""
**.host[24].pingTestApp[*].destAddresses = "host[4]"
**.host[25].pingTestApp[*].destAddresses = "host[14]"
**.host[26].pingTestApp[*].destAddresses = "host[24]"


**.host[28].pingTestApp[*].destAddresses = "host[8]"
**.host[29].pingTestApp[*].destAddresses = "host[9]"
**.host[30].pingTestApp[*].destAddresses = "host[34]"
**.host[31].pingTestApp[*].destAddresses = "host[33]"
**.host[32].pingTestApp[*].destAddresses = ""
**.host[33].pingTestApp[*].destAddresses = "host[21]"
**.host[34].pingTestApp[*].destAddresses = "host[11]"


**.host[7].pingTestApp[*].destAddresses = "host[15]"
**.host[8].pingTestApp[*].destAddresses = "host[16]"
**.host[9].pingTestApp[*].destAddresses = "host[17]"
**.host[17].pingTestApp[*].destAddresses = "host[27]"
**.host[18].pingTestApp[*].destAddresses = ""
**.host[19].pingTestApp[*].destAddresses = "host[29]"
**.host[27].pingTestApp[*].destAddresses = "host[7]"

**.hosts = 35
**.gw = 5

#active gateway position
**.gw[0].*.constraintAreaMinX = 1000m
**.gw[0].*.constraintAreaMinY = 1000m
**.gw[0].*.constraintAreaMaxX = 1000m
**.gw[0].*.constraintAreaMaxY = 1000m
**.gw[1].*.constraintAreaMinX = 3000m
**.gw[1].*.constraintAreaMinY = 1000m
**.gw[1].*.constraintAreaMaxX = 3000m
**.gw[1].*.constraintAreaMaxY = 1000m
**.gw[2].*.constraintAreaMinX = 1000m
**.gw[2].*.constraintAreaMinY = 3000m
**.gw[2].*.constraintAreaMaxX = 1000m
**.gw[2].*.constraintAreaMaxY = 3000m
**.gw[3].*.constraintAreaMinX = 3000m
**.gw[3].*.constraintAreaMinY = 3000m
**.gw[3].*.constraintAreaMaxX = 3000m
**.gw[3].*.constraintAreaMaxY = 3000m
**.gw[4].*.constraintAreaMinX = 2000m
**.gw[4].*.constraintAreaMinY = 2000m
**.gw[4].*.constraintAreaMaxX = 2000m
**.gw[4].*.constraintAreaMaxY = 2000m

#NODE POSITIONS
#######******* part of cluster 0ne ***************
**.host[1].*.constraintAreaMinX = 500m
**.host[1].*.constraintAreaMinY = 500m
**.host[1].*.constraintAreaMaxX = 1500m
**.host[1].*.constraintAreaMaxY = 1500m
**.host[2].*.constraintAreaMinX = 500m
**.host[2].*.constraintAreaMinY = 500m
**.host[2].*.constraintAreaMaxX = 1500m
**.host[2].*.constraintAreaMaxY = 1500m
**.host[3].*.constraintAreaMinX = 500m
**.host[3].*.constraintAreaMinY = 500m
**.host[3].*.constraintAreaMaxX = 1500m
**.host[3].*.constraintAreaMaxY = 1500m

#######******* cluster five ***************
**.host[7].*.constraintAreaMinX = 1700m
**.host[7].*.constraintAreaMinY = 1700m
**.host[7].*.constraintAreaMaxX = 2200m
**.host[7].*.constraintAreaMaxY = 2200m
**.host[8].*.constraintAreaMinX = 1700m
**.host[8].*.constraintAreaMinY = 1700m
**.host[8].*.constraintAreaMaxX = 2200m
**.host[8].*.constraintAreaMaxY = 2200m
**.host[9].*.constraintAreaMinX = 1700m
**.host[9].*.constraintAreaMinY = 1700m
**.host[9].*.constraintAreaMaxX = 2200m
**.host[9].*.constraintAreaMaxY = 2200m
**.host[17].*.constraintAreaMinX = 1700m
**.host[17].*.constraintAreaMinY = 1700m
**.host[17].*.constraintAreaMaxX = 2200m
**.host[17].*.constraintAreaMaxY = 2200m
**.host[18].*.constraintAreaMinX = 1700m
**.host[18].*.constraintAreaMinY = 1700m
**.host[18].*.constraintAreaMaxX = 2200m
**.host[18].*.constraintAreaMaxY = 2200m
**.host[19].*.constraintAreaMinX = 1700m
**.host[19].*.constraintAreaMinY = 1700m
**.host[19].*.constraintAreaMaxX = 2200m
**.host[19].*.constraintAreaMaxY = 2200m
**.host[27].*.constraintAreaMinX = 1700m
**.host[27].*.constraintAreaMinY = 1700m
**.host[27].*.constraintAreaMaxX = 2200m
**.host[27].*.constraintAreaMaxY = 2200m

#######******* part of cluster four ***************
**.host[28].*.constraintAreaMinX = 2500m
**.host[28].*.constraintAreaMinY = 2500m
**.host[28].*.constraintAreaMaxX = 3500m
**.host[28].*.constraintAreaMaxY = 3500m
**.host[29].*.constraintAreaMinX = 2500m
**.host[29].*.constraintAreaMinY = 2500m
**.host[29].*.constraintAreaMaxX = 3500m
**.host[29].*.constraintAreaMaxY = 3500m

#######******* cluster two *****************************
**.host[1*].*.constraintAreaMinX = 2500m
**.host[1*].*.constraintAreaMinY = 500m
**.host[1*].*.constraintAreaMaxX = 3500m
**.host[1*].*.constraintAreaMaxY = 1500m

#######******* cluster three ***************************
**.host[2*].*.constraintAreaMinX = 500m
**.host[2*].*.constraintAreaMinY = 2500m
**.host[2*].*.constraintAreaMaxX = 1500m
**.host[2*].*.constraintAreaMaxY = 3500m

#######******* other part of cluster four **************
**.host[3*].*.constraintAreaMinX = 2500m
**.host[3*].*.constraintAreaMinY = 2500m
**.host[3*].*.constraintAreaMaxX = 3500m
**.host[3*].*.constraintAreaMaxY = 3500m

#######******* other part of cluster 0ne ***************
**.host[*].*.constraintAreaMinX = 500m
**.host[*].*.constraintAreaMinY = 500m
**.host[*].*.constraintAreaMaxX = 1500m
**.host[*].*.constraintAreaMaxY = 1500m



# configure IPv4 addresses
*.configurator.config = xml( \
"<config>\
		<interface hosts='gw[0] host[0] host[1] host[2] host[3] host[4] host[5] host[6]' names='wlan0' address='10.0.1.x' netmask='255.255.255.0'/>\
		<interface hosts='gw[1] host[10] host[11] host[12] host[13] host[14] host[15] host[16]' names='wlan0' address='10.0.2.x' netmask='255.255.255.0'/>\
		<interface hosts='gw[2] host[20] host[21] host[22] host[23] host[24] host[25] host[26]' names='wlan0' address='10.0.3.x' netmask='255.255.255.0'/>\
		<interface hosts='gw[3] host[28] host[29] host[30] host[31] host[32] host[33] host[34]' names='wlan0' address='10.0.4.x' netmask='255.255.255.0'/>\
		<interface hosts='gw[4] host[7] host[8] host[9] host[17] host[18] host[19] host[27]' names='wlan0' address='10.0.5.x' netmask='255.255.255.0'/>\
		<interface hosts='gw[0] gw[1] gw[2] gw[3] gw[4]' names='wlan1' address='10.0.0.x' netmask='255.255.255.0'/>\
</config>")


# number of radios per host
*.gw[*].numRadios = 2
*.host[*].numRadios = 1
 

# number of channels used
**.channelControl.numChannels = 6

**.gw[0].wlan[0].radio.channelNumber = 0
**.gw[1].wlan[0].radio.channelNumber = 1
**.gw[2].wlan[0].radio.channelNumber = 2
**.gw[3].wlan[0].radio.channelNumber = 3
**.gw[4].wlan[0].radio.channelNumber = 4
**.gw[*].wlan[1].radio.channelNumber = 5

**.host[1].wlan[0].radio.channelNumber = 0
**.host[2].wlan[0].radio.channelNumber = 0
**.host[3].wlan[0].radio.channelNumber = 0

**.host[7].wlan[0].radio.channelNumber = 4
**.host[8].wlan[0].radio.channelNumber = 4
**.host[9].wlan[0].radio.channelNumber = 4
**.host[17].wlan[0].radio.channelNumber = 4
**.host[18].wlan[0].radio.channelNumber = 4
**.host[19].wlan[0].radio.channelNumber = 4
**.host[27].wlan[0].radio.channelNumber = 4

**.host[28].wlan[0].radio.channelNumber = 3
**.host[29].wlan[0].radio.channelNumber = 3

**.host[1*].wlan[0].radio.channelNumber = 1
**.host[2*].wlan[0].radio.channelNumber = 2
**.host[3*].wlan[0].radio.channelNumber = 3
**.host[*].wlan[0].radio.channelNumber = 0


##############################################################################################
[Config SixClusters]
##############################################################################################

*.gw[*].wlan[0].radio.maxDistance = 700m
*.gw[*].wlan[*].radio.maxDistance = 4000m
*.host[*].wlan[*].radio.maxDistance = 700m

#ping configs
**.host[30].pingTestApp[*].startTime = 210.30s
**.host[31].pingTestApp[*].startTime = 210.31s