[General]
#repeat = 1
#seed-set = ${repetition}
seed-set = 4
network = p2psipmanet.simulations.Silas.Flooding
debug-on-errors = true
#record-eventlog = true
sim-time-limit = 15min #note: see oversim-specific parameters "transition-time" / "measurement time"
description = "Flooding- no mobility"


**.constraintAreaMinX = 0m
**.constraintAreaMinY = 0m
**.constraintAreaMinZ = 0m
**.constraintAreaMaxX = 4000m
**.constraintAreaMaxY = 4000m
**.constraintAreaMaxZ = 0m

# mobility
**.mobilityType = "StationaryMobility"

#PING CONFIGS
**.numPingApps = 1
**.pingApp[*].printPing = true
**.pingApp[*].sendInterval = normal(0.3s, 0.01s)
**.pingApp[*].packetSize = 128B
**.gw[*].pingApp[*].startTime = 0s
**.gw[*].pingApp[*].stopTime = 0s
**.host[0].pingApp[*].startTime = 210s
**.host[1].pingApp[*].startTime = 210.1s
**.host[2].pingApp[*].startTime = 210.2s
**.host[3].pingApp[*].startTime = 210.3s
**.host[4].pingApp[*].startTime = 210.4s
**.host[5].pingApp[*].startTime = 210.5s
**.host[6].pingApp[*].startTime = 210.6s
**.host[7].pingApp[*].startTime = 210.7s
**.host[8].pingApp[*].startTime = 210.8s
**.host[9].pingApp[*].startTime = 210.9s
**.host[10].pingApp[*].startTime = 210.10s
**.host[11].pingApp[*].startTime = 210.11s
**.host[12].pingApp[*].startTime = 210.12s
**.host[13].pingApp[*].startTime = 210.13s
**.host[14].pingApp[*].startTime = 210.14s
**.host[15].pingApp[*].startTime = 210.15s
**.host[16].pingApp[*].startTime = 210.16s
**.host[17].pingApp[*].startTime = 210.17s
**.host[18].pingApp[*].startTime = 210.18s
**.host[19].pingApp[*].startTime = 210.19s
**.host[20].pingApp[*].startTime = 210.20s
**.host[21].pingApp[*].startTime = 210.21s
**.host[22].pingApp[*].startTime = 210.22s
**.host[23].pingApp[*].startTime = 210.23s
**.host[24].pingApp[*].startTime = 210.24s
**.host[25].pingApp[*].startTime = 210.25s
**.host[26].pingApp[*].startTime = 210.26s
**.host[27].pingApp[*].startTime = 210.27s
**.host[28].pingApp[*].startTime = 210.28s
**.host[29].pingApp[*].startTime = 210.29s

**.host[0].pingApp[*].destAddr = "host[20]"
**.host[1].pingApp[*].destAddr = "host[21]"
**.host[2].pingApp[*].destAddr = "host[10]"
**.host[3].pingApp[*].destAddr = "host[11]"
**.host[4].pingApp[*].destAddr = "host[12]"
**.host[5].pingApp[*].destAddr = "host[25]"
**.host[6].pingApp[*].destAddr = "host[26]"
**.host[7].pingApp[*].destAddr = "host[15]"
**.host[8].pingApp[*].destAddr = "host[16]"
**.host[9].pingApp[*].destAddr = "host[17]"

**.host[10].pingApp[*].destAddr = "host[0]"
**.host[11].pingApp[*].destAddr = "host[1]"
**.host[12].pingApp[*].destAddr = "host[22]"
**.host[13].pingApp[*].destAddr = "host[23]"
**.host[14].pingApp[*].destAddr = "host[24]"
**.host[15].pingApp[*].destAddr = "host[5]"
**.host[16].pingApp[*].destAddr = "host[6]"
**.host[17].pingApp[*].destAddr = "host[27]"
**.host[18].pingApp[*].destAddr = "host[28]"
**.host[19].pingApp[*].destAddr = "host[29]"

**.host[20].pingApp[*].destAddr = "host[13]"
**.host[21].pingApp[*].destAddr = "host[14]"
**.host[22].pingApp[*].destAddr = "host[2]"
**.host[23].pingApp[*].destAddr = "host[3]"
**.host[24].pingApp[*].destAddr = "host[4]"
**.host[25].pingApp[*].destAddr = "host[18]"
**.host[26].pingApp[*].destAddr = "host[19]"
**.host[27].pingApp[*].destAddr = "host[7]"
**.host[28].pingApp[*].destAddr = "host[8]"
**.host[29].pingApp[*].destAddr = "host[9]"


**.scalar-recording = true
**.vector-recording = false
**.printOLSRmessages = true


# configure routing and interface info
**.gw[*].manetrouting.announcedNetworks = "0.0.0.0/0.0.0.0"
**.configurator.dumpAddresses = true
**.configurator.dumpTopology = true
**.configurator.dumpRoutes = true
**.configurator.addStaticRoutes = false
**.configurator.addDefaultRoutes = false
**.configurator.addSubnetRoutes = false
**.routingProtocol = "OLSR"
**.manetrouting.excludedInterfaces = "wlan1"
**.manetrouting.interfaces = "wlan0"
**.manetrouting.interface = "wlan0"

#RADIO CONFIGS
**.wlan[*].bitrate = 11Mbps


##################################
#OLSR CONFIG
##################################
**.isFlooding = true

##############################################################################################
[Config OneCluster]
##############################################################################################

*.host[*].wlan[*].radio.maxDistance = 1000m

**.hosts = 40
**.gw = 0


#NODE POSITIONS
**.host[*].*.constraintAreaMinX = 0m
**.host[*].*.constraintAreaMinY = 0m
**.host[*].*.constraintAreaMaxX = 1000m
**.host[*].*.constraintAreaMaxY = 1000m

# configure IPv4 addresses
*.configurator.config = xml( \
"<config>\
		<interface hosts='host[*]' names='wlan0' address='10.0.0.x' netmask='255.255.255.0'/>\
</config>")


# number of radios per host
*.host[*].numRadios = 1
 

# number of channels used
**.channelControl.numChannels = 1

# wlan interface - radio channel assignemnt
**.host[*].wlan[0].radio.channelNumber =0



##############################################################################################
[Config TwoClusters]
##############################################################################################

*.gw[*].wlan[0].radio.maxDistance = 1000m
*.gw[*].wlan[*].radio.maxDistance = 4000m
*.host[*].wlan[*].radio.maxDistance = 1000m

**.hosts = 38
**.gw = 3 #one unresolved issue is that, getting two gateways to form the overlay works sometimes and does not work other times. To be on the safe side, 3 can be used and the metrics for the third gateway may be discarded. 

#active gateway position
**.gw[0].*.constraintAreaMinX = 1000m
**.gw[0].*.constraintAreaMinY = 1000m
**.gw[0].*.constraintAreaMaxX = 1000m
**.gw[0].*.constraintAreaMaxY = 1000m
**.gw[1].*.constraintAreaMinX = 3000m
**.gw[1].*.constraintAreaMinY = 3000m
**.gw[1].*.constraintAreaMaxX = 3000m
**.gw[1].*.constraintAreaMaxY = 3000m
**.gw[2].*.constraintAreaMinX = 3000m
**.gw[2].*.constraintAreaMinY = 1000m
**.gw[2].*.constraintAreaMaxX = 3000m
**.gw[2].*.constraintAreaMaxY = 1000m


#NODE POSITIONS
**.host[1].*.constraintAreaMinX = 500m
**.host[1].*.constraintAreaMinY = 500m
**.host[1].*.constraintAreaMaxX = 2000m
**.host[1].*.constraintAreaMaxY = 2000m
**.host[2].*.constraintAreaMinX = 500m
**.host[2].*.constraintAreaMinY = 500m
**.host[2].*.constraintAreaMaxX = 2000m
**.host[2].*.constraintAreaMaxY = 2000m
**.host[3].*.constraintAreaMinX = 500m
**.host[3].*.constraintAreaMinY = 500m
**.host[3].*.constraintAreaMaxX = 2000m
**.host[3].*.constraintAreaMaxY = 2000m
**.host[1*].*.constraintAreaMinX = 500m
**.host[1*].*.constraintAreaMinY = 500m
**.host[1*].*.constraintAreaMaxX = 2000m
**.host[1*].*.constraintAreaMaxY = 2000m
**.host[2*].*.constraintAreaMinX = 2500m
**.host[2*].*.constraintAreaMinY = 2500m
**.host[2*].*.constraintAreaMaxX = 4000m
**.host[2*].*.constraintAreaMaxY = 4000m
**.host[3*].*.constraintAreaMinX = 2500m
**.host[3*].*.constraintAreaMinY = 2500m
**.host[3*].*.constraintAreaMaxX = 4000m
**.host[3*].*.constraintAreaMaxY = 4000m
**.host[*].*.constraintAreaMinX = 500m
**.host[*].*.constraintAreaMinY = 500m
**.host[*].*.constraintAreaMaxX = 2000m
**.host[*].*.constraintAreaMaxY = 2000m


# configure IPv4 addresses
*.configurator.config = xml( \
"<config>\
		<interface hosts='gw[0] host[1] host[2] host[3] host[1*]' names='wlan0' address='10.0.1.x' netmask='255.255.255.0'/>\
		<interface hosts='gw[1] host[2*] host[3*]' names='wlan0' address='10.0.2.x' netmask='255.255.255.0'/>\
		<interface hosts='gw[0] host[*]' names='wlan0' address='10.0.1.x' netmask='255.255.255.0'/>\
		<interface hosts='gw[0] gw[1] gw[2]' names='wlan1' address='10.0.0.x' netmask='255.255.255.0'/>\
</config>")


# number of radios per host
*.gw[*].numRadios = 2
*.host[*].numRadios = 1
 

# number of channels used
**.channelControl.numChannels = 5

# wlan interface - radio channel assignemnt
**.gw[0].wlan[0].radio.channelNumber = 0
**.gw[1].wlan[0].radio.channelNumber = 1
**.gw[2].wlan[0].radio.channelNumber = 3
**.gw[*].wlan[1].radio.channelNumber = 2
**.host[1].wlan[0].radio.channelNumber = 0
**.host[2].wlan[0].radio.channelNumber = 0
**.host[3].wlan[0].radio.channelNumber = 0
**.host[1*].wlan[0].radio.channelNumber = 0
**.host[2*].wlan[0].radio.channelNumber = 1
**.host[3*].wlan[0].radio.channelNumber = 1
**.host[*].wlan[0].radio.channelNumber =0



##############################################################################################
[Config ThreeClusters]
##############################################################################################

# the three cluster config is just a test bed ... we did not collect any metrics for this one but we have it anyway

*.gw[*].wlan[0].radio.maxDistance = 900m
*.gw[*].wlan[*].radio.maxDistance = 4000m
*.host[*].wlan[*].radio.maxDistance = 900m

**.hosts = 37
**.gw = 3

#active gateway position
**.gw[0].*.constraintAreaMinX = 2000m
**.gw[0].*.constraintAreaMinY = 1000m
**.gw[0].*.constraintAreaMaxX = 2000m
**.gw[0].*.constraintAreaMaxY = 1000m
**.gw[1].*.constraintAreaMinX = 750m
**.gw[1].*.constraintAreaMinY = 3000m
**.gw[1].*.constraintAreaMaxX = 750m
**.gw[1].*.constraintAreaMaxY = 3000m
**.gw[2].*.constraintAreaMinX = 3250m
**.gw[2].*.constraintAreaMinY = 3000m
**.gw[2].*.constraintAreaMaxX = 3250m
**.gw[2].*.constraintAreaMaxY = 3000m

#NODE POSITIONS
**.host[0].*.constraintAreaMinX = 1000m
**.host[0].*.constraintAreaMinY = 0m
**.host[0].*.constraintAreaMaxX = 3000m
**.host[0].*.constraintAreaMaxY = 1600m
**.host[1].*.constraintAreaMinX = 1000m
**.host[1].*.constraintAreaMinY = 0m
**.host[1].*.constraintAreaMaxX = 3000m
**.host[1].*.constraintAreaMaxY = 1600m
**.host[2].*.constraintAreaMinX = 1000m
**.host[2].*.constraintAreaMinY = 0m
**.host[2].*.constraintAreaMaxX = 3000m
**.host[2].*.constraintAreaMaxY = 1600m
**.host[1*].*.constraintAreaMinX = 0m
**.host[1*].*.constraintAreaMinY = 2400m
**.host[1*].*.constraintAreaMaxX = 2000m
**.host[1*].*.constraintAreaMaxY = 4000m
**.host[2*].*.constraintAreaMinX = 2000m
**.host[2*].*.constraintAreaMinY = 2400m
**.host[2*].*.constraintAreaMaxX = 4000m
**.host[2*].*.constraintAreaMaxY = 4000m
**.host[*].*.constraintAreaMinX = 1000m
**.host[*].*.constraintAreaMinY = 0m
**.host[*].*.constraintAreaMaxX = 3000m
**.host[*].*.constraintAreaMaxY = 1600m

# configure IPv4 addresses
*.configurator.config = xml( \
"<config>\
		<interface hosts='gw[0] host[0] host[1] host[2] host[3]' names='wlan0' address='10.0.1.x' netmask='255.255.255.0'/>\
		<interface hosts='gw[1] host[1*]' names='wlan0' address='10.0.2.x' netmask='255.255.255.0'/>\
		<interface hosts='gw[2] host[2*]' names='wlan0' address='10.0.3.x' netmask='255.255.255.0'/>\
		<interface hosts='gw[0] host[*]' names='wlan0' address='10.0.1.x' netmask='255.255.255.0'/>\
		<interface hosts='gw[0] gw[1] gw[2]' names='wlan1' address='10.0.0.x' netmask='255.255.255.0'/>\
</config>")


# number of radios per host
*.gw[*].numRadios = 2
*.host[*].numRadios = 1
 

# number of channels used
**.channelControl.numChannels = 4

# wlan interface - radio channel assignemnt
**.gw[0].wlan[0].radio.channelNumber = 0
**.gw[1].wlan[0].radio.channelNumber = 1
**.gw[2].wlan[0].radio.channelNumber = 2
**.gw[*].wlan[1].radio.channelNumber = 3
**.host[0].wlan[0].radio.channelNumber = 0
**.host[1].wlan[0].radio.channelNumber = 0
**.host[2].wlan[0].radio.channelNumber = 0
**.host[1*].wlan[0].radio.channelNumber = 1
**.host[2*].wlan[0].radio.channelNumber = 2
**.host[*].wlan[0].radio.channelNumber =0



##############################################################################################
[Config FourClusters]
##############################################################################################

*.gw[*].wlan[0].radio.maxDistance = 800m
*.gw[*].wlan[*].radio.maxDistance = 4000m
*.host[*].wlan[*].radio.maxDistance = 800m

#ping configs
**.host[30].pingApp[*].startTime = 210.30s
**.host[31].pingApp[*].startTime = 210.31s
**.host[32].pingApp[*].startTime = 210.32s
**.host[33].pingApp[*].startTime = 210.33s
**.host[34].pingApp[*].startTime = 210.34s
**.host[35].pingApp[*].startTime = 210.35s

**.host[30].pingApp[*].destAddr = "host[31]"
**.host[31].pingApp[*].destAddr = "host[33]"
**.host[32].pingApp[*].destAddr = "host[30]"
**.host[33].pingApp[*].destAddr = "host[32]"
**.host[34].pingApp[*].destAddr = "host[35]"
**.host[35].pingApp[*].destAddr = "host[34]"

**.hosts = 36
**.gw = 4

#active gateway position
**.gw[0].*.constraintAreaMinX = 1000m
**.gw[0].*.constraintAreaMinY = 1000m
**.gw[0].*.constraintAreaMaxX = 1000m
**.gw[0].*.constraintAreaMaxY = 1000m
**.gw[1].*.constraintAreaMinX = 3000m
**.gw[1].*.constraintAreaMinY = 1000m
**.gw[1].*.constraintAreaMaxX = 3000m
**.gw[1].*.constraintAreaMaxY = 1000m
**.gw[2].*.constraintAreaMinX = 1000m
**.gw[2].*.constraintAreaMinY = 3000m
**.gw[2].*.constraintAreaMaxX = 1000m
**.gw[2].*.constraintAreaMaxY = 3000m
**.gw[3].*.constraintAreaMinX = 3000m
**.gw[3].*.constraintAreaMinY = 3000m
**.gw[3].*.constraintAreaMaxX = 3000m
**.gw[3].*.constraintAreaMaxY = 3000m

#NODE POSITIONS
**.host[1].*.constraintAreaMinX = 500m
**.host[1].*.constraintAreaMinY = 500m
**.host[1].*.constraintAreaMaxX = 1500m
**.host[1].*.constraintAreaMaxY = 1500m
**.host[2].*.constraintAreaMinX = 500m
**.host[2].*.constraintAreaMinY = 500m
**.host[2].*.constraintAreaMaxX = 1500m
**.host[2].*.constraintAreaMaxY = 1500m
**.host[3].*.constraintAreaMinX = 500m
**.host[3].*.constraintAreaMinY = 500m
**.host[3].*.constraintAreaMaxX = 1500m
**.host[3].*.constraintAreaMaxY = 1500m

**.host[1*].*.constraintAreaMinX = 2500m
**.host[1*].*.constraintAreaMinY = 500m
**.host[1*].*.constraintAreaMaxX = 3500m
**.host[1*].*.constraintAreaMaxY = 1500m

**.host[2*].*.constraintAreaMinX = 500m
**.host[2*].*.constraintAreaMinY = 2500m
**.host[2*].*.constraintAreaMaxX = 1500m
**.host[2*].*.constraintAreaMaxY = 3500m

**.host[3*].*.constraintAreaMinX = 2500m
**.host[3*].*.constraintAreaMinY = 2500m
**.host[3*].*.constraintAreaMaxX = 3500m
**.host[3*].*.constraintAreaMaxY = 3500m

**.host[*].*.constraintAreaMinX = 500m
**.host[*].*.constraintAreaMinY = 500m
**.host[*].*.constraintAreaMaxX = 1500m
**.host[*].*.constraintAreaMaxY = 1500m

# configure IPv4 addresses
*.configurator.config = xml( \
"<config>\
		<interface hosts='gw[0] host[1] host[2] host[3]' names='wlan0' address='10.0.1.x' netmask='255.255.255.0'/>\
		<interface hosts='gw[1] host[1*]' names='wlan0' address='10.0.2.x' netmask='255.255.255.0'/>\
		<interface hosts='gw[2] host[2*]' names='wlan0' address='10.0.3.x' netmask='255.255.255.0'/>\
		<interface hosts='gw[3] host[3*]' names='wlan0' address='10.0.4.x' netmask='255.255.255.0'/>\
		<interface hosts='gw[0] host[*]' names='wlan0' address='10.0.1.x' netmask='255.255.255.0'/>\
		<interface hosts='gw[0] gw[1] gw[2] gw[3]' names='wlan1' address='10.0.0.x' netmask='255.255.255.0'/>\
</config>")


# number of radios per host
*.gw[*].numRadios = 2
*.host[*].numRadios = 1
 

# number of channels used
**.channelControl.numChannels = 5

# wlan interface - radio channel assignemnt
**.gw[0].wlan[0].radio.channelNumber = 0
**.gw[1].wlan[0].radio.channelNumber = 1
**.gw[2].wlan[0].radio.channelNumber = 2
**.gw[3].wlan[0].radio.channelNumber = 3
**.gw[*].wlan[1].radio.channelNumber = 4
**.host[1].wlan[0].radio.channelNumber = 0
**.host[2].wlan[0].radio.channelNumber = 0
**.host[3].wlan[0].radio.channelNumber = 0
**.host[1*].wlan[0].radio.channelNumber = 1
**.host[2*].wlan[0].radio.channelNumber = 2
**.host[3*].wlan[0].radio.channelNumber = 3
**.host[*].wlan[0].radio.channelNumber = 0


##############################################################################################
[Config FiveClusters]
##############################################################################################

*.gw[*].wlan[0].radio.maxDistance = 700m
*.gw[*].wlan[*].radio.maxDistance = 4000m
*.host[*].wlan[*].radio.maxDistance = 700m

**.hosts = 35
**.gw = 5

#ping configs
**.host[30].pingApp[*].startTime = 210.30s
**.host[31].pingApp[*].startTime = 210.31s
**.host[32].pingApp[*].startTime = 210.32s
**.host[33].pingApp[*].startTime = 210.33s
**.host[34].pingApp[*].startTime = 210.34s

**.host[30].pingApp[*].destAddr = "host[34]"
**.host[31].pingApp[*].destAddr = "host[33]"
**.host[32].pingApp[*].destAddr = "host[30]"
**.host[33].pingApp[*].destAddr = "host[32]"
**.host[34].pingApp[*].destAddr = "host[31]"




#active gateway position
**.gw[0].*.constraintAreaMinX = 1000m
**.gw[0].*.constraintAreaMinY = 1000m
**.gw[0].*.constraintAreaMaxX = 1000m
**.gw[0].*.constraintAreaMaxY = 1000m
**.gw[1].*.constraintAreaMinX = 3000m
**.gw[1].*.constraintAreaMinY = 1000m
**.gw[1].*.constraintAreaMaxX = 3000m
**.gw[1].*.constraintAreaMaxY = 1000m
**.gw[2].*.constraintAreaMinX = 1000m
**.gw[2].*.constraintAreaMinY = 3000m
**.gw[2].*.constraintAreaMaxX = 1000m
**.gw[2].*.constraintAreaMaxY = 3000m
**.gw[3].*.constraintAreaMinX = 3000m
**.gw[3].*.constraintAreaMinY = 3000m
**.gw[3].*.constraintAreaMaxX = 3000m
**.gw[3].*.constraintAreaMaxY = 3000m
**.gw[4].*.constraintAreaMinX = 2000m
**.gw[4].*.constraintAreaMinY = 2000m
**.gw[4].*.constraintAreaMaxX = 2000m
**.gw[4].*.constraintAreaMaxY = 2000m

#NODE POSITIONS
#######******* part of cluster 0ne ***************
**.host[1].*.constraintAreaMinX = 500m
**.host[1].*.constraintAreaMinY = 500m
**.host[1].*.constraintAreaMaxX = 1500m
**.host[1].*.constraintAreaMaxY = 1500m
**.host[2].*.constraintAreaMinX = 500m
**.host[2].*.constraintAreaMinY = 500m
**.host[2].*.constraintAreaMaxX = 1500m
**.host[2].*.constraintAreaMaxY = 1500m
**.host[3].*.constraintAreaMinX = 500m
**.host[3].*.constraintAreaMinY = 500m
**.host[3].*.constraintAreaMaxX = 1500m
**.host[3].*.constraintAreaMaxY = 1500m

#######******* cluster five ***************
**.host[7].*.constraintAreaMinX = 1700m
**.host[7].*.constraintAreaMinY = 1700m
**.host[7].*.constraintAreaMaxX = 2200m
**.host[7].*.constraintAreaMaxY = 2200m
**.host[8].*.constraintAreaMinX = 1700m
**.host[8].*.constraintAreaMinY = 1700m
**.host[8].*.constraintAreaMaxX = 2200m
**.host[8].*.constraintAreaMaxY = 2200m
**.host[9].*.constraintAreaMinX = 1700m
**.host[9].*.constraintAreaMinY = 1700m
**.host[9].*.constraintAreaMaxX = 2200m
**.host[9].*.constraintAreaMaxY = 2200m
**.host[17].*.constraintAreaMinX = 1700m
**.host[17].*.constraintAreaMinY = 1700m
**.host[17].*.constraintAreaMaxX = 2200m
**.host[17].*.constraintAreaMaxY = 2200m
**.host[18].*.constraintAreaMinX = 1700m
**.host[18].*.constraintAreaMinY = 1700m
**.host[18].*.constraintAreaMaxX = 2200m
**.host[18].*.constraintAreaMaxY = 2200m
**.host[19].*.constraintAreaMinX = 1700m
**.host[19].*.constraintAreaMinY = 1700m
**.host[19].*.constraintAreaMaxX = 2200m
**.host[19].*.constraintAreaMaxY = 2200m
**.host[27].*.constraintAreaMinX = 1700m
**.host[27].*.constraintAreaMinY = 1700m
**.host[27].*.constraintAreaMaxX = 2200m
**.host[27].*.constraintAreaMaxY = 2200m

#######******* part of cluster four ***************
**.host[28].*.constraintAreaMinX = 2500m
**.host[28].*.constraintAreaMinY = 2500m
**.host[28].*.constraintAreaMaxX = 3500m
**.host[28].*.constraintAreaMaxY = 3500m
**.host[29].*.constraintAreaMinX = 2500m
**.host[29].*.constraintAreaMinY = 2500m
**.host[29].*.constraintAreaMaxX = 3500m
**.host[29].*.constraintAreaMaxY = 3500m

#######******* cluster two *****************************
**.host[1*].*.constraintAreaMinX = 2500m
**.host[1*].*.constraintAreaMinY = 500m
**.host[1*].*.constraintAreaMaxX = 3500m
**.host[1*].*.constraintAreaMaxY = 1500m

#######******* cluster three ***************************
**.host[2*].*.constraintAreaMinX = 500m
**.host[2*].*.constraintAreaMinY = 2500m
**.host[2*].*.constraintAreaMaxX = 1500m
**.host[2*].*.constraintAreaMaxY = 3500m

#######******* other part of cluster four **************
**.host[3*].*.constraintAreaMinX = 2500m
**.host[3*].*.constraintAreaMinY = 2500m
**.host[3*].*.constraintAreaMaxX = 3500m
**.host[3*].*.constraintAreaMaxY = 3500m

#######******* other part of cluster 0ne ***************
**.host[*].*.constraintAreaMinX = 500m
**.host[*].*.constraintAreaMinY = 500m
**.host[*].*.constraintAreaMaxX = 1500m
**.host[*].*.constraintAreaMaxY = 1500m



# configure IPv4 addresses
*.configurator.config = xml( \
"<config>\
		<interface hosts='gw[0] host[0] host[1] host[2] host[3] host[4] host[5] host[6]' names='wlan0' address='10.0.1.x' netmask='255.255.255.0'/>\
		<interface hosts='gw[1] host[10] host[11] host[12] host[13] host[14] host[15] host[16]' names='wlan0' address='10.0.2.x' netmask='255.255.255.0'/>\
		<interface hosts='gw[2] host[20] host[21] host[22] host[23] host[24] host[25] host[26]' names='wlan0' address='10.0.3.x' netmask='255.255.255.0'/>\
		<interface hosts='gw[3] host[28] host[29] host[30] host[31] host[32] host[33] host[34]' names='wlan0' address='10.0.4.x' netmask='255.255.255.0'/>\
		<interface hosts='gw[4] host[7] host[8] host[9] host[17] host[18] host[19] host[27]' names='wlan0' address='10.0.5.x' netmask='255.255.255.0'/>\
		<interface hosts='gw[0] gw[1] gw[2] gw[3] gw[4]' names='wlan1' address='10.0.0.x' netmask='255.255.255.0'/>\
</config>")


# number of radios per host
*.gw[*].numRadios = 2
*.host[*].numRadios = 1
 

# number of channels used
**.channelControl.numChannels = 6

# wlan interface - radio channel assignemnt
**.gw[0].wlan[0].radio.channelNumber = 0
**.gw[1].wlan[0].radio.channelNumber = 1
**.gw[2].wlan[0].radio.channelNumber = 2
**.gw[3].wlan[0].radio.channelNumber = 3
**.gw[4].wlan[0].radio.channelNumber = 4
**.gw[*].wlan[1].radio.channelNumber = 5

**.host[1].wlan[0].radio.channelNumber = 0
**.host[2].wlan[0].radio.channelNumber = 0
**.host[3].wlan[0].radio.channelNumber = 0

**.host[7].wlan[0].radio.channelNumber = 4
**.host[8].wlan[0].radio.channelNumber = 4
**.host[9].wlan[0].radio.channelNumber = 4
**.host[17].wlan[0].radio.channelNumber = 4
**.host[18].wlan[0].radio.channelNumber = 4
**.host[19].wlan[0].radio.channelNumber = 4
**.host[27].wlan[0].radio.channelNumber = 4

**.host[28].wlan[0].radio.channelNumber = 3
**.host[29].wlan[0].radio.channelNumber = 3

**.host[1*].wlan[0].radio.channelNumber = 1
**.host[2*].wlan[0].radio.channelNumber = 2
**.host[3*].wlan[0].radio.channelNumber = 3
**.host[*].wlan[0].radio.channelNumber = 0


##############################################################################################
[Config SixClusters]
##############################################################################################


*.gw[*].wlan[0].radio.maxDistance = 700m
*.gw[*].wlan[*].radio.maxDistance = 4000m
*.host[*].wlan[*].radio.maxDistance = 700m

#ping configs
**.host[30].pingApp[*].startTime = 210.30s
**.host[31].pingApp[*].startTime = 210.31s
**.host[32].pingApp[*].startTime = 210.32s
**.host[33].pingApp[*].startTime = 210.33s

**.host[30].pingApp[*].destAddr = "host[31]"
**.host[31].pingApp[*].destAddr = "host[33]"
**.host[32].pingApp[*].destAddr = "host[30]"
**.host[33].pingApp[*].destAddr = "host[32]"


**.hosts = 34
**.gw = 6

#active gateway position
**.gw[0].*.constraintAreaMinX = 1000m
**.gw[0].*.constraintAreaMinY = 600m
**.gw[0].*.constraintAreaMaxX = 1000m
**.gw[0].*.constraintAreaMaxY = 600m
**.gw[1].*.constraintAreaMinX = 3000m
**.gw[1].*.constraintAreaMinY = 600m
**.gw[1].*.constraintAreaMaxX = 3000m
**.gw[1].*.constraintAreaMaxY = 600m
**.gw[2].*.constraintAreaMinX = 1000m
**.gw[2].*.constraintAreaMinY = 3000m
**.gw[2].*.constraintAreaMaxX = 1000m
**.gw[2].*.constraintAreaMaxY = 3000m
**.gw[3].*.constraintAreaMinX = 3000m
**.gw[3].*.constraintAreaMinY = 3000m
**.gw[3].*.constraintAreaMaxX = 3000m
**.gw[3].*.constraintAreaMaxY = 3000m
**.gw[4].*.constraintAreaMinX = 1400m
**.gw[4].*.constraintAreaMinY = 2000m
**.gw[4].*.constraintAreaMaxX = 1400m
**.gw[4].*.constraintAreaMaxY = 2000m
**.gw[5].*.constraintAreaMinX = 2600m
**.gw[5].*.constraintAreaMinY = 2000m
**.gw[5].*.constraintAreaMaxX = 2600m
**.gw[5].*.constraintAreaMaxY = 2000m

#NODE POSITIONS
**.host[0].*.constraintAreaMinX = 500m
**.host[0].*.constraintAreaMinY = 0m
**.host[0].*.constraintAreaMaxX = 1500m
**.host[0].*.constraintAreaMaxY = 1000m
**.host[1].*.constraintAreaMinX = 500m
**.host[1].*.constraintAreaMinY = 0m
**.host[1].*.constraintAreaMaxX = 1500m
**.host[1].*.constraintAreaMaxY = 1000m
**.host[2].*.constraintAreaMinX = 500m
**.host[2].*.constraintAreaMinY = 0m
**.host[2].*.constraintAreaMaxX = 1500m
**.host[2].*.constraintAreaMaxY = 1000m
**.host[3].*.constraintAreaMinX = 500m
**.host[3].*.constraintAreaMinY = 0m
**.host[3].*.constraintAreaMaxX = 1500m
**.host[3].*.constraintAreaMaxY = 1000m
**.host[4].*.constraintAreaMinX = 500m
**.host[4].*.constraintAreaMinY = 0m
**.host[4].*.constraintAreaMaxX = 1500m
**.host[4].*.constraintAreaMaxY = 1000m
**.host[5].*.constraintAreaMinX = 500m
**.host[5].*.constraintAreaMinY = 0m
**.host[5].*.constraintAreaMaxX = 1500m
**.host[5].*.constraintAreaMaxY = 1000m

**.host[6].*.constraintAreaMinX = 2500m
**.host[6].*.constraintAreaMinY = 0m
**.host[6].*.constraintAreaMaxX = 3500m
**.host[6].*.constraintAreaMaxY = 1000m
**.host[7].*.constraintAreaMinX = 2500m
**.host[7].*.constraintAreaMinY = 0m
**.host[7].*.constraintAreaMaxX = 3500m
**.host[7].*.constraintAreaMaxY = 1000m
**.host[8].*.constraintAreaMinX = 2500m
**.host[8].*.constraintAreaMinY = 0m
**.host[8].*.constraintAreaMaxX = 3500m
**.host[8].*.constraintAreaMaxY = 1000m
**.host[9].*.constraintAreaMinX = 2500m
**.host[9].*.constraintAreaMinY = 0m
**.host[9].*.constraintAreaMaxX = 3500m
**.host[9].*.constraintAreaMaxY = 1000m
**.host[10].*.constraintAreaMinX = 2500m
**.host[10].*.constraintAreaMinY = 0m
**.host[10].*.constraintAreaMaxX = 3500m
**.host[10].*.constraintAreaMaxY = 1000m
**.host[11].*.constraintAreaMinX = 2500m
**.host[11].*.constraintAreaMinY = 0m
**.host[11].*.constraintAreaMaxX = 3500m
**.host[11].*.constraintAreaMaxY = 1000m

**.host[12].*.constraintAreaMinX = 500m
**.host[12].*.constraintAreaMinY = 2500m
**.host[12].*.constraintAreaMaxX = 1500m
**.host[12].*.constraintAreaMaxY = 3500m
**.host[13].*.constraintAreaMinX = 500m
**.host[13].*.constraintAreaMinY = 2500m
**.host[13].*.constraintAreaMaxX = 1500m
**.host[13].*.constraintAreaMaxY = 3500m
**.host[14].*.constraintAreaMinX = 500m
**.host[14].*.constraintAreaMinY = 2500m
**.host[14].*.constraintAreaMaxX = 1500m
**.host[14].*.constraintAreaMaxY = 3500m
**.host[15].*.constraintAreaMinX = 500m
**.host[15].*.constraintAreaMinY = 2500m
**.host[15].*.constraintAreaMaxX = 1500m
**.host[15].*.constraintAreaMaxY = 3500m
**.host[16].*.constraintAreaMinX = 500m
**.host[16].*.constraintAreaMinY = 2500m
**.host[16].*.constraintAreaMaxX = 1500m
**.host[16].*.constraintAreaMaxY = 3500m
**.host[17].*.constraintAreaMinX = 500m
**.host[17].*.constraintAreaMinY = 2500m
**.host[17].*.constraintAreaMaxX = 1500m
**.host[17].*.constraintAreaMaxY = 3500m

**.host[18].*.constraintAreaMinX = 2500m
**.host[18].*.constraintAreaMinY = 2500m
**.host[18].*.constraintAreaMaxX = 3500m
**.host[18].*.constraintAreaMaxY = 3500m
**.host[19].*.constraintAreaMinX = 2500m
**.host[19].*.constraintAreaMinY = 2500m
**.host[19].*.constraintAreaMaxX = 3500m
**.host[19].*.constraintAreaMaxY = 3500m
**.host[20].*.constraintAreaMinX = 2500m
**.host[20].*.constraintAreaMinY = 2500m
**.host[20].*.constraintAreaMaxX = 3500m
**.host[20].*.constraintAreaMaxY = 3500m
**.host[21].*.constraintAreaMinX = 2500m
**.host[21].*.constraintAreaMinY = 2500m
**.host[21].*.constraintAreaMaxX = 3500m
**.host[21].*.constraintAreaMaxY = 3500m
**.host[22].*.constraintAreaMinX = 2500m
**.host[22].*.constraintAreaMinY = 2500m
**.host[22].*.constraintAreaMaxX = 3500m
**.host[22].*.constraintAreaMaxY = 3500m
**.host[23].*.constraintAreaMinX = 2500m
**.host[23].*.constraintAreaMinY = 2500m
**.host[23].*.constraintAreaMaxX = 3500m
**.host[23].*.constraintAreaMaxY = 3500m

**.host[24].*.constraintAreaMinX = 700m
**.host[24].*.constraintAreaMinY = 1500m
**.host[24].*.constraintAreaMaxX = 1700m
**.host[24].*.constraintAreaMaxY = 2500m
**.host[25].*.constraintAreaMinX = 700m
**.host[25].*.constraintAreaMinY = 1500m
**.host[25].*.constraintAreaMaxX = 1700m
**.host[25].*.constraintAreaMaxY = 2500m
**.host[26].*.constraintAreaMinX = 700m
**.host[26].*.constraintAreaMinY = 1500m
**.host[26].*.constraintAreaMaxX = 1700m
**.host[26].*.constraintAreaMaxY = 2500m
**.host[27].*.constraintAreaMinX = 700m
**.host[27].*.constraintAreaMinY = 1500m
**.host[27].*.constraintAreaMaxX = 1700m
**.host[27].*.constraintAreaMaxY = 2500m
**.host[28].*.constraintAreaMinX = 700m
**.host[28].*.constraintAreaMinY = 1500m
**.host[28].*.constraintAreaMaxX = 1700m
**.host[28].*.constraintAreaMaxY = 2500m


**.host[29].*.constraintAreaMinX = 2700m
**.host[29].*.constraintAreaMinY = 1500m
**.host[29].*.constraintAreaMaxX = 3700m
**.host[29].*.constraintAreaMaxY = 2500m
**.host[30].*.constraintAreaMinX = 2700m
**.host[30].*.constraintAreaMinY = 1500m
**.host[30].*.constraintAreaMaxX = 3700m
**.host[30].*.constraintAreaMaxY = 2500m
**.host[31].*.constraintAreaMinX = 2700m
**.host[31].*.constraintAreaMinY = 1500m
**.host[31].*.constraintAreaMaxX = 3700m
**.host[31].*.constraintAreaMaxY = 2500m
**.host[32].*.constraintAreaMinX = 2700m
**.host[32].*.constraintAreaMinY = 1500m
**.host[32].*.constraintAreaMaxX = 3700m
**.host[32].*.constraintAreaMaxY = 2500m
**.host[33].*.constraintAreaMinX = 2700m
**.host[33].*.constraintAreaMinY = 1500m
**.host[33].*.constraintAreaMaxX = 3700m
**.host[33].*.constraintAreaMaxY = 2500m

# configure IPv4 addresses
*.configurator.config = xml( \
"<config>\
		<interface hosts='gw[0] host[0] host[1] host[2] host[3] host[4] host[5]' names='wlan0' address='10.0.1.x' netmask='255.255.255.0'/>\
		<interface hosts='gw[1] host[6] host[7] host[8] host[9] host[10] host[11]' names='wlan0' address='10.0.2.x' netmask='255.255.255.0'/>\
		<interface hosts='gw[2] host[12] host[13] host[14] host[15] host[16] host[17]' names='wlan0' address='10.0.3.x' netmask='255.255.255.0'/>\
		<interface hosts='gw[3] host[18] host[19] host[20] host[21] host[22] host[23]' names='wlan0' address='10.0.4.x' netmask='255.255.255.0'/>\